Circuit: * C:\Users\Luca\Desktop\SPICE\progetto_PSE_post_Fourier.asc

Direct Newton iteration failed to find .op point.  (Use ".option noopiter" to skip.)
Starting Gmin stepping
Gmin = 10
Gmin = 1.07374
Gmin = 0.115292
Gmin = 0.0123794
Gmin = 0.00132923
Gmin = 0.000142725
Gmin = 1.5325e-05
Gmin = 1.6455e-06
Gmin = 1.76685e-07
Gmin = 1.89714e-08
Gmin = 2.03704e-09
Gmin = 2.18725e-10
Gmin = 2.34854e-11
Gmin = 2.52173e-12
Gmin = 2.70769e-13
Gmin = 0
Gmin stepping succeeded in finding the operating point.


Date: Mon May  4 11:29:33 2020
Total elapsed time: 0.987 seconds.

tnom = 27
temp = 27
method = modified trap
totiter = 50458
traniter = 50089
tranpoints = 14119
accept = 10564
rejected = 3555
matrix size = 28
fillins = 28
solver = Normal
Thread vector: 18.2/13.0[3] 4.7/3.1[3] 3.3/8.7[1] 0.3/0.8[1]  2592/500
Matrix Compiler1: 2.61 KB object code size  1.0/0.5/[0.2]
Matrix Compiler2: 3.22 KB object code size  0.5/0.7/[0.5]

