Circuit: * C:\Users\Luca\Desktop\SPICE\progetto_PSE.asc

Direct Newton iteration failed to find .op point.  (Use ".option noopiter" to skip.)
Starting Gmin stepping
Gmin = 10
Gmin = 1.07374
Gmin = 0.115292
Gmin = 0.0123794
Gmin = 0.00132923
Gmin = 0.000142725
Gmin = 1.5325e-05
Gmin = 1.6455e-06
Gmin = 1.76685e-07
Gmin = 1.89714e-08
Gmin = 2.03704e-09
Gmin = 2.18725e-10
Gmin = 2.34854e-11
Gmin = 2.52173e-12
Gmin = 2.70769e-13
Gmin = 0
Gmin stepping succeeded in finding the operating point.


Date: Wed Apr 29 14:52:03 2020
Total elapsed time: 1.570 seconds.

tnom = 27
temp = 27
method = modified trap
totiter = 60818
traniter = 60131
tranpoints = 15968
accept = 11865
rejected = 4103
matrix size = 47
fillins = 71
solver = Normal
Thread vector: 21.7/13.3[4] 7.2/4.1[4] 3.3/2.3[4] 0.3/1.1[1]  2592/500
Matrix Compiler1:     474 opcodes  2.4/[1.0]/1.2
Matrix Compiler2:     455 opcodes
